/*--------------------------------*- C++ -*----------------------------------*\
| =========                 |                                                 |
| \\      /  F ield         | OpenFOAM: The Open Source CFD Toolbox           |
|  \\    /   O peration     | Version:  4.x                                   |
|   \\  /    A nd           | Web:      www.OpenFOAM.org                      |
|    \\/     M anipulation  |                                                 |
\*---------------------------------------------------------------------------*/
FoamFile
{
    version     2.0;
    format      ascii;
    class       extendedFeatureEdgeMesh;
    location    "constant/extendedFeatureEdgeMesh";
    object      box.extendedFeatureEdgeMesh;
}
// * * * * * * * * * * * * * * * * * * * * * * * * * * * * * * * * * * * * * //

// points
8((0 0 -0.25) (0 0 0.25) (0 33 0.25) (0 33 -0.25) (38 0 -0.25) (38 0 0.25) (38 33 0.25) (38 33 -0.25))
// edges
4((0 1) (2 3) (4 5) (6 7))
// concaveStart mixedStart nonFeatureStart
0 0 0
// internalStart flatStart openStart multipleStart
4 4 4 4
// normals
8((-1 0 0) (0 -1 0) (-1 0 0) (0 1 0) (0 -1 0) (1 0 0) (0 1 0) (1 0 0))
// normal volume types

8
(
0
0
0
0
0
0
0
0
)

// normalDirections

4
(
2(1 -1)
2(1 -1)
2(1 -1)
2(1 -1)
)

// edgeNormals

4
(
2(0 1)
2(2 3)
2(4 5)
2(6 7)
)

// featurePointNormals
0()
// featurePointEdges
0()
// regionEdges
4(0 1 2 3)


// ************************************************************************* //
