/*--------------------------------*- C++ -*----------------------------------*\
| =========                 |                                                |
| \\      /  F ield         | OpenFOAM GUI Project: creativeFields           |
|  \\    /   O peration     | Version:  0.8.9.0                                  |
|   \\  /    A nd           | Web: www.c-fields.com                                       |
|    \\/     M anipulation  |                                                |
\*---------------------------------------------------------------------------*/

FoamFile
{
version	2;
format	ascii;
class	dictionary;
location	"system";
object	meshDict;
}

// * * * * * * * * * * * * * * * * * * * * * * * * * * * * * * * * * * * * * //

surfaceFile	"constant/triSurface/geom.stl";

maxCellSize	0.2;

boundaryLayers
{
    patchBoundaryLayers
    {
        walls
        {
            nLayers         1;
            thicknessRatio  1;
        }
    }
    optimizeLayer 1;
    optimizationParameters
    {
        relThicknessTol 0.1;
    }
}

renameBoundary
{
    newPatchNames
    {
        "inlet"
        {
            newName inlet;
            type patch;
        }
        "outlet"
        {
            newName outlet;
            type patch;
        }
        "insolubleWall"
        {
            newName insolubleWall;
            type patch;
        }
        "topEmptyFaces"
        {
            newName top;
            type empty;
        }
        "bottomEmptyFaces"
        {
            newName bottom;
            type empty;
        }
        "walls"
        {
            newName solubleWall;
            type patch;
        }
    }
}


// ************************************************************************* //
