/*--------------------------------*- C++ -*----------------------------------*\
| =========                 |                                                 |
| \\      /  F ield         | OpenFOAM: The Open Source CFD Toolbox           |
|  \\    /   O peration     | Version:  2.4.0                                 |
|   \\  /    A nd           | Web:      www.OpenFOAM.org                      |
|    \\/     M anipulation  |                                                 |
\*---------------------------------------------------------------------------*/
FoamFile
{
    version     4.0;
    format      ascii;
    class       dictionary;
    location    "system";
    object      surfRoughGenDict;
}

patchName     solubleWall;

seed             513287;

roughness            0.01;

fractalParam           -1;

smoothing           0.001;

sizeMaj               128;
sizeLat               128;

majDir                   0;
latDir                   1;

apply                oneSurface; // symmetric, synchronous, asymmetric, oneSurface; 
