/*------------------------------*- C++ -*--------------------------------*\ 
| =========                 |                                             | 
| \\      /  F ield         | OpenFOAM: The Open Source CFD Toolbox       | 
|  \\    /   O peration     | Version:  2.4.0                             | 
|   \\  /    A nd           | Web:      www.openfoam.com                  | 
|    \\/     M anipulation  |                                             | 
\*-----------------------------------------------------------------------*/ 
FoamFile 
{ 
    version     2.0; 
    format      ascii; 
    class       dictionary; 
    object      blockMeshDict; 
} 
// * * * * * * * * * * * * * * * * * * * * * * * * * * * * * * * * * * * // 

convertToMeters 1.0; 

vertices
(
    (      11        0     -0.5)
    (      37 -1.53957     -0.5)
    (      37  1.53957     -0.5)
    (      11        0      0.5)
    (      37 -1.53957      0.5)
    (      37  1.53957      0.5)
);

edges
(
    spline 0 1 (
        ( 11.0032 -0.0465475     -0.5)
        ( 11.0098 -0.0806226     -0.5)
        ( 11.0162 -0.104083     -0.5)
        ( 11.0228 -0.123153     -0.5)
        ( 11.0292 -0.139642     -0.5)
        ( 11.0358 -0.15438     -0.5)
        ( 11.0422 -0.167829     -0.5)
        ( 11.0488 -0.180278     -0.5)
        ( 11.0552 -0.19192     -0.5)
        ( 11.0617 -0.202896     -0.5)
        ( 11.0683 -0.213307     -0.5)
        ( 11.0747 -0.223234     -0.5)
        ( 11.0813 -0.232737     -0.5)
        ( 11.0877 -0.241868     -0.5)
        ( 11.0943 -0.250666     -0.5)
        ( 11.1007 -0.259165     -0.5)
        ( 11.1073 -0.267395     -0.5)
        ( 11.1137 -0.275379     -0.5)
        ( 11.1203 -0.283137     -0.5)
        ( 11.1267 -0.290689     -0.5)
        ( 11.1333 -0.298049     -0.5)
        ( 11.1397 -0.305232     -0.5)
        ( 11.1463 -0.31225     -0.5)
        ( 11.1527 -0.319113     -0.5)
        ( 11.1593 -0.325832     -0.5)
        ( 11.1657 -0.332415     -0.5)
        ( 11.1723 -0.338871     -0.5)
        ( 11.1788 -0.345205     -0.5)
        ( 11.1852 -0.351426     -0.5)
        ( 11.1918 -0.357538     -0.5)
        ( 11.1982 -0.363547     -0.5)
        ( 11.2048 -0.369459     -0.5)
        ( 11.2112 -0.375278     -0.5)
        ( 11.2178 -0.381007     -0.5)
        ( 11.2242 -0.386652     -0.5)
        ( 11.2308 -0.392216     -0.5)
        ( 11.2372 -0.397702     -0.5)
        ( 11.2438 -0.403113     -0.5)
        ( 11.2502 -0.408452     -0.5)
        ( 11.2568 -0.413723     -0.5)
        ( 11.2632 -0.418927     -0.5)
        ( 11.2698 -0.424068     -0.5)
        ( 11.2762 -0.429146     -0.5)
        ( 11.2828 -0.434166     -0.5)
        ( 11.2892 -0.439128     -0.5)
        ( 11.2957 -0.444035     -0.5)
        ( 11.3023 -0.448888     -0.5)
        ( 11.3087 -0.453689     -0.5)
        ( 11.3153 -0.458439     -0.5)
        ( 11.3217 -0.463141     -0.5)
        ( 11.3283 -0.467796     -0.5)
        ( 11.3347 -0.472405     -0.5)
        ( 11.3413 -0.47697     -0.5)
        ( 11.3477 -0.481491     -0.5)
        ( 11.3543 -0.48597     -0.5)
        ( 11.3607 -0.490408     -0.5)
        ( 11.3673 -0.494806     -0.5)
        ( 11.3737 -0.499166     -0.5)
        ( 11.3803 -0.503488     -0.5)
        ( 11.3867 -0.507773     -0.5)
        ( 11.3933 -0.512022     -0.5)
        ( 11.3997 -0.516236     -0.5)
        ( 11.4062 -0.520416     -0.5)
        ( 11.4128 -0.524563     -0.5)
        ( 11.4192 -0.528678     -0.5)
        ( 11.4258 -0.53276     -0.5)
        ( 11.4322 -0.536812     -0.5)
        ( 11.4388 -0.540833     -0.5)
        ( 11.4452 -0.544824     -0.5)
        ( 11.4518 -0.548787     -0.5)
        ( 11.4582 -0.552721     -0.5)
        ( 11.4648 -0.556627     -0.5)
        ( 11.4712 -0.560506     -0.5)
        ( 11.4778 -0.564358     -0.5)
        ( 11.4842 -0.568184     -0.5)
        ( 11.4908 -0.571985     -0.5)
        ( 11.4972 -0.57576     -0.5)
        ( 11.5038 -0.579511     -0.5)
        ( 11.5102 -0.583238     -0.5)
        ( 11.5168 -0.586941     -0.5)
        ( 11.5233 -0.590621     -0.5)
        ( 11.5297 -0.594278     -0.5)
        ( 11.5363 -0.597913     -0.5)
        ( 11.5427 -0.601526     -0.5)
        ( 11.5493 -0.605117     -0.5)
        ( 11.5557 -0.608687     -0.5)
        ( 11.5623 -0.612236     -0.5)
        ( 11.5687 -0.615765     -0.5)
        ( 11.5753 -0.619274     -0.5)
        ( 11.5817 -0.622763     -0.5)
        ( 11.5883 -0.626232     -0.5)
        ( 11.5947 -0.629682     -0.5)
        ( 11.6013 -0.633114     -0.5)
        ( 11.6077 -0.636527     -0.5)
        ( 11.6143 -0.639922     -0.5)
        ( 11.6207 -0.643299     -0.5)
        ( 11.6273 -0.646658     -0.5)
        ( 11.6337    -0.65     -0.5)
        ( 11.6402 -0.653325     -0.5)
        ( 11.6468 -0.656633     -0.5)
        ( 11.6532 -0.659924     -0.5)
        ( 11.6598 -0.663199     -0.5)
        ( 11.6662 -0.666458     -0.5)
        ( 11.6728 -0.669701     -0.5)
        ( 11.6792 -0.672929     -0.5)
        ( 11.6858 -0.676141     -0.5)
        ( 11.6922 -0.679338     -0.5)
        ( 11.6988 -0.68252     -0.5)
        ( 11.7052 -0.685687     -0.5)
        ( 11.7118 -0.68884     -0.5)
        ( 11.7182 -0.691978     -0.5)
        ( 11.7248 -0.695102     -0.5)
        ( 11.7312 -0.698212     -0.5)
        ( 11.7378 -0.701308     -0.5)
        ( 11.7442 -0.704391     -0.5)
        ( 11.7508 -0.70746     -0.5)
        ( 11.7572 -0.710516     -0.5)
        ( 11.7637 -0.713559     -0.5)
        ( 11.7703 -0.716589     -0.5)
        ( 11.7767 -0.719606     -0.5)
        ( 11.7833 -0.722611     -0.5)
        ( 11.7897 -0.725603     -0.5)
        ( 11.7963 -0.728583     -0.5)
        ( 11.8027 -0.731551     -0.5)
        ( 11.8093 -0.734507     -0.5)
        ( 11.8157 -0.737451     -0.5)
        ( 11.8223 -0.740383     -0.5)
        ( 11.8287 -0.743303     -0.5)
        ( 11.8353 -0.746213     -0.5)
        ( 11.8417 -0.749111     -0.5)
        ( 11.8483 -0.751997     -0.5)
        ( 11.8547 -0.754873     -0.5)
        ( 11.8613 -0.757738     -0.5)
        ( 11.8678 -0.760592     -0.5)
        ( 11.8742 -0.763435     -0.5)
        ( 11.8808 -0.766268     -0.5)
        ( 11.8872 -0.76909     -0.5)
        ( 11.8938 -0.771902     -0.5)
        ( 11.9002 -0.774704     -0.5)
        ( 11.9068 -0.777496     -0.5)
        ( 11.9132 -0.780278     -0.5)
        ( 11.9198 -0.78305     -0.5)
        ( 11.9262 -0.785812     -0.5)
        ( 11.9328 -0.788564     -0.5)
        ( 11.9392 -0.791307     -0.5)
        ( 11.9458 -0.79404     -0.5)
        ( 11.9522 -0.796764     -0.5)
        ( 11.9588 -0.799479     -0.5)
        ( 11.9652 -0.802185     -0.5)
        ( 11.9718 -0.804881     -0.5)
        ( 11.9782 -0.807568     -0.5)
        ( 11.9848 -0.810247     -0.5)
        ( 11.9913 -0.812917     -0.5)
        ( 11.9977 -0.815578     -0.5)
        ( 12.0043 -0.81823     -0.5)
        ( 12.0107 -0.820874     -0.5)
        ( 12.0173 -0.823509     -0.5)
        ( 12.0237 -0.826136     -0.5)
        ( 12.0303 -0.828754     -0.5)
        ( 12.0367 -0.831364     -0.5)
        ( 12.0433 -0.833966     -0.5)
        ( 12.0497 -0.83656     -0.5)
        ( 12.0563 -0.839146     -0.5)
        ( 12.0627 -0.841724     -0.5)
        ( 12.0693 -0.844295     -0.5)
        ( 12.0757 -0.846857     -0.5)
        ( 12.0823 -0.849412     -0.5)
        ( 12.0888 -0.851959     -0.5)
        ( 12.0953 -0.854498     -0.5)
        ( 12.1017 -0.85703     -0.5)
        ( 12.1082 -0.859554     -0.5)
        ( 12.1148 -0.862071     -0.5)
        ( 12.1212 -0.864581     -0.5)
        ( 12.1278 -0.867083     -0.5)
        ( 12.1342 -0.869578     -0.5)
        ( 12.1408 -0.872067     -0.5)
        ( 12.1472 -0.874548     -0.5)
        ( 12.1538 -0.877021     -0.5)
        ( 12.1602 -0.879488     -0.5)
        ( 12.1668 -0.881949     -0.5)
        ( 12.1732 -0.884402     -0.5)
        ( 12.1798 -0.886848     -0.5)
        ( 12.1862 -0.889288     -0.5)
        ( 12.1928 -0.891721     -0.5)
        ( 12.1992 -0.894148     -0.5)
        ( 12.2058 -0.896568     -0.5)
        ( 12.2123 -0.898981     -0.5)
        ( 12.2188 -0.901388     -0.5)
        ( 12.2252 -0.903788     -0.5)
        ( 12.2317 -0.906182     -0.5)
        ( 12.2383 -0.90857     -0.5)
        ( 12.2447 -0.910952     -0.5)
        ( 12.2513 -0.913327     -0.5)
        ( 12.2577 -0.915696     -0.5)
        ( 12.2643 -0.91806     -0.5)
        ( 12.2707 -0.920417     -0.5)
        ( 12.2773 -0.922768     -0.5)
        ( 12.2837 -0.925113     -0.5)
        ( 12.2903 -0.927452     -0.5)
        ( 12.2967 -0.929785     -0.5)
        ( 12.3033 -0.932112     -0.5)
        ( 12.3097 -0.934434     -0.5)
        ( 12.3163 -0.93675     -0.5)
        ( 12.3227 -0.93906     -0.5)
        ( 12.3293 -0.941364     -0.5)
        ( 12.3358 -0.943663     -0.5)
        ( 12.3422 -0.945956     -0.5)
        ( 12.3487 -0.948244     -0.5)
        ( 12.3552 -0.950526     -0.5)
        ( 12.3618 -0.952803     -0.5)
        ( 12.3682 -0.955074     -0.5)
        ( 12.3748 -0.95734     -0.5)
        ( 12.3812 -0.959601     -0.5)
        ( 12.3878 -0.961856     -0.5)
        ( 12.3942 -0.964106     -0.5)
        ( 12.4008 -0.966351     -0.5)
        ( 12.4072 -0.96859     -0.5)
        ( 12.4138 -0.970824     -0.5)
        ( 12.4202 -0.973054     -0.5)
        ( 12.4268 -0.975278     -0.5)
        ( 12.4332 -0.977497     -0.5)
        ( 12.4398 -0.979711     -0.5)
        ( 12.4462 -0.98192     -0.5)
        ( 12.4527 -0.984124     -0.5)
        ( 12.4593 -0.986323     -0.5)
        ( 12.4657 -0.988517     -0.5)
        ( 12.4723 -0.990707     -0.5)
        ( 12.4787 -0.992891     -0.5)
        ( 12.4853 -0.995071     -0.5)
        ( 12.4917 -0.997246     -0.5)
        ( 12.4983 -0.999416     -0.5)
        ( 12.5047 -1.00158     -0.5)
        ( 12.5113 -1.00374     -0.5)
        ( 12.5177  -1.0059     -0.5)
        ( 12.5243 -1.00805     -0.5)
        ( 12.5307  -1.0102     -0.5)
        ( 12.5373 -1.01234     -0.5)
        ( 12.5437 -1.01448     -0.5)
        ( 12.5503 -1.01661     -0.5)
        ( 12.5568 -1.01874     -0.5)
        ( 12.5633 -1.02087     -0.5)
        ( 12.5697 -1.02299     -0.5)
        ( 12.5762  -1.0251     -0.5)
        ( 12.5828 -1.02721     -0.5)
        ( 12.5892 -1.02932     -0.5)
        ( 12.5958 -1.03142     -0.5)
        ( 12.6022 -1.03352     -0.5)
        ( 12.6088 -1.03562     -0.5)
        ( 12.6152 -1.03771     -0.5)
        ( 12.6218 -1.03979     -0.5)
        ( 12.6282 -1.04187     -0.5)
        ( 12.6348 -1.04395     -0.5)
        ( 12.6412 -1.04602     -0.5)
        ( 12.6478 -1.04809     -0.5)
        ( 12.6542 -1.05016     -0.5)
        ( 12.6608 -1.05222     -0.5)
        ( 12.6672 -1.05428     -0.5)
        ( 12.6738 -1.05633     -0.5)
        ( 12.6803 -1.05838     -0.5)
        ( 12.6867 -1.06042     -0.5)
        ( 12.6932 -1.06247     -0.5)
        ( 12.6997  -1.0645     -0.5)
        ( 12.7063 -1.06654     -0.5)
        ( 12.7127 -1.06857     -0.5)
        ( 12.7193 -1.07059     -0.5)
        ( 12.7257 -1.07261     -0.5)
        ( 12.7323 -1.07463     -0.5)
        ( 12.7387 -1.07665     -0.5)
        ( 12.7453 -1.07866     -0.5)
        ( 12.7517 -1.08066     -0.5)
        ( 12.7583 -1.08267     -0.5)
        ( 12.7647 -1.08467     -0.5)
        ( 12.7713 -1.08666     -0.5)
        ( 12.7777 -1.08865     -0.5)
        ( 12.7843 -1.09064     -0.5)
        ( 12.7907 -1.09263     -0.5)
        ( 12.7973 -1.09461     -0.5)
        ( 12.8038 -1.09659     -0.5)
        ( 12.8102 -1.09856     -0.5)
        ( 12.8168 -1.10053     -0.5)
        ( 12.8232  -1.1025     -0.5)
        ( 12.8298 -1.10446     -0.5)
        ( 12.8362 -1.10642     -0.5)
        ( 12.8428 -1.10838     -0.5)
        ( 12.8492 -1.11033     -0.5)
        ( 12.8558 -1.11228     -0.5)
        ( 12.8622 -1.11423     -0.5)
        ( 12.8688 -1.11617     -0.5)
        ( 12.8752 -1.11811     -0.5)
        ( 12.8818 -1.12004     -0.5)
        ( 12.8882 -1.12198     -0.5)
        ( 12.8948 -1.12391     -0.5)
        ( 12.9013 -1.12583     -0.5)
        ( 12.9078 -1.12776     -0.5)
        ( 12.9142 -1.12968     -0.5)
        ( 12.9207 -1.13159     -0.5)
        ( 12.9273  -1.1335     -0.5)
        ( 12.9337 -1.13541     -0.5)
        ( 12.9403 -1.13732     -0.5)
        ( 12.9467 -1.13922     -0.5)
        ( 12.9533 -1.14113     -0.5)
        ( 12.9597 -1.14302     -0.5)
        ( 12.9663 -1.14492     -0.5)
        ( 12.9727 -1.14681     -0.5)
        ( 12.9793 -1.14869     -0.5)
        ( 12.9857 -1.15058     -0.5)
        ( 12.9923 -1.15246     -0.5)
        ( 12.9987 -1.15434     -0.5)
        ( 13.0053 -1.15622     -0.5)
        ( 13.0117 -1.15809     -0.5)
        ( 13.0183 -1.15996     -0.5)
        ( 13.0248 -1.16182     -0.5)
        ( 13.0312 -1.16369     -0.5)
        ( 13.0377 -1.16555     -0.5)
        ( 13.0442  -1.1674     -0.5)
        ( 13.0508 -1.16926     -0.5)
        ( 13.0572 -1.17111     -0.5)
        ( 13.0638 -1.17296     -0.5)
        ( 13.0702  -1.1748     -0.5)
        ( 13.0768 -1.17665     -0.5)
        ( 13.0832 -1.17849     -0.5)
        ( 13.0898 -1.18032     -0.5)
        ( 13.0962 -1.18216     -0.5)
        ( 13.1028 -1.18399     -0.5)
        ( 13.1092 -1.18582     -0.5)
        ( 13.1158 -1.18764     -0.5)
        ( 13.1223 -1.18947     -0.5)
        ( 13.1288 -1.19129     -0.5)
        ( 13.1352 -1.19311     -0.5)
        ( 13.1418 -1.19492     -0.5)
        ( 13.1483 -1.19673     -0.5)
        ( 13.1547 -1.19854     -0.5)
        ( 13.1612 -1.20035     -0.5)
        ( 13.1677 -1.20215     -0.5)
        ( 13.1743 -1.20395     -0.5)
        ( 13.1807 -1.20575     -0.5)
        ( 13.1873 -1.20755     -0.5)
        ( 13.1937 -1.20934     -0.5)
        ( 13.2003 -1.21113     -0.5)
        ( 13.2067 -1.21292     -0.5)
        ( 13.2133  -1.2147     -0.5)
        ( 13.2197 -1.21648     -0.5)
        ( 13.2263 -1.21826     -0.5)
        ( 13.2327 -1.22004     -0.5)
        ( 13.2393 -1.22182     -0.5)
        ( 13.2458 -1.22359     -0.5)
        ( 13.2523 -1.22536     -0.5)
        ( 13.2587 -1.22712     -0.5)
        ( 13.2652 -1.22889     -0.5)
        ( 13.2718 -1.23065     -0.5)
        ( 13.2782 -1.23241     -0.5)
        ( 13.2847 -1.23417     -0.5)
        ( 13.2912 -1.23592     -0.5)
        ( 13.2978 -1.23767     -0.5)
        ( 13.3042 -1.23942     -0.5)
        ( 13.3108 -1.24117     -0.5)
        ( 13.3172 -1.24291     -0.5)
        ( 13.3238 -1.24466     -0.5)
        ( 13.3302 -1.24639     -0.5)
        ( 13.3368 -1.24813     -0.5)
        ( 13.3432 -1.24987     -0.5)
        ( 13.3498  -1.2516     -0.5)
        ( 13.3562 -1.25333     -0.5)
        ( 13.3628 -1.25506     -0.5)
        ( 13.3693 -1.25678     -0.5)
        ( 13.3758  -1.2585     -0.5)
        ( 13.3822 -1.26022     -0.5)
        ( 13.3887 -1.26194     -0.5)
        ( 13.3953 -1.26366     -0.5)
        ( 13.4017 -1.26537     -0.5)
        ( 13.4082 -1.26708     -0.5)
        ( 13.4147 -1.26879     -0.5)
        ( 13.4213  -1.2705     -0.5)
        ( 13.4277  -1.2722     -0.5)
        ( 13.4343  -1.2739     -0.5)
        ( 13.4407  -1.2756     -0.5)
        ( 13.4473  -1.2773     -0.5)
        ( 13.4537   -1.279     -0.5)
        ( 13.4603 -1.28069     -0.5)
        ( 13.4668 -1.28238     -0.5)
        ( 13.4733 -1.28407     -0.5)
        ( 13.4797 -1.28576     -0.5)
        ( 13.4863 -1.28744     -0.5)
        ( 13.4928 -1.28912     -0.5)
        ( 13.4992  -1.2908     -0.5)
        ( 13.5057 -1.29248     -0.5)
        ( 13.5122 -1.29415     -0.5)
        ( 13.5188 -1.29583     -0.5)
        ( 13.5252  -1.2975     -0.5)
        ( 13.5318 -1.29917     -0.5)
        ( 13.5382 -1.30083     -0.5)
        ( 13.5448  -1.3025     -0.5)
        ( 13.5512 -1.30416     -0.5)
        ( 13.5578 -1.30582     -0.5)
        ( 13.5642 -1.30748     -0.5)
        ( 13.5708 -1.30913     -0.5)
        ( 13.5772 -1.31079     -0.5)
        ( 13.5838 -1.31244     -0.5)
        ( 13.5903 -1.31409     -0.5)
        ( 13.5968 -1.31574     -0.5)
        ( 13.6032 -1.31738     -0.5)
        ( 13.6098 -1.31903     -0.5)
        ( 13.6163 -1.32067     -0.5)
        ( 13.6227 -1.32231     -0.5)
        ( 13.6292 -1.32395     -0.5)
        ( 13.6357 -1.32558     -0.5)
        ( 13.6423 -1.32722     -0.5)
        ( 13.6487 -1.32885     -0.5)
        ( 13.6553 -1.33048     -0.5)
        ( 13.6617  -1.3321     -0.5)
        ( 13.6683 -1.33373     -0.5)
        ( 13.6747 -1.33535     -0.5)
        ( 13.6813 -1.33697     -0.5)
        ( 13.6877 -1.33859     -0.5)
        ( 13.6943 -1.34021     -0.5)
        ( 13.7007 -1.34183     -0.5)
        ( 13.7073 -1.34344     -0.5)
        ( 13.7138 -1.34505     -0.5)
        ( 13.7203 -1.34666     -0.5)
        ( 13.7267 -1.34827     -0.5)
        ( 13.7332 -1.34988     -0.5)
        ( 13.7398 -1.35148     -0.5)
        ( 13.7462 -1.35308     -0.5)
        ( 13.7527 -1.35468     -0.5)
        ( 13.7592 -1.35628     -0.5)
        ( 13.7658 -1.35788     -0.5)
        ( 13.7722 -1.35947     -0.5)
        ( 13.7788 -1.36107     -0.5)
        ( 13.7852 -1.36266     -0.5)
        ( 13.7918 -1.36425     -0.5)
        ( 13.7982 -1.36583     -0.5)
        ( 13.8048 -1.36742     -0.5)
        ( 13.8112   -1.369     -0.5)
        ( 13.8178 -1.37058     -0.5)
        ( 13.8242 -1.37216     -0.5)
        ( 13.8308 -1.37374     -0.5)
        ( 13.8373 -1.37532     -0.5)
        ( 13.8438 -1.37689     -0.5)
        ( 13.8502 -1.37847     -0.5)
        ( 13.8567 -1.38004     -0.5)
        ( 13.8633 -1.38161     -0.5)
        ( 13.8697 -1.38317     -0.5)
        ( 13.8763 -1.38474     -0.5)
        ( 13.8827  -1.3863     -0.5)
        ( 13.8893 -1.38786     -0.5)
        ( 13.8957 -1.38942     -0.5)
        ( 13.9023 -1.39098     -0.5)
        ( 13.9087 -1.39254     -0.5)
        ( 13.9153 -1.39409     -0.5)
        ( 13.9217 -1.39565     -0.5)
        ( 13.9283  -1.3972     -0.5)
        ( 13.9348 -1.39875     -0.5)
        ( 13.9413  -1.4003     -0.5)
        ( 13.9477 -1.40184     -0.5)
        ( 13.9543 -1.40339     -0.5)
        ( 13.9608 -1.40493     -0.5)
        ( 13.9672 -1.40647     -0.5)
        ( 13.9737 -1.40801     -0.5)
        ( 13.9802 -1.40955     -0.5)
        ( 13.9868 -1.41109     -0.5)
        ( 13.9932 -1.41262     -0.5)
        ( 13.9998 -1.41415     -0.5)
        ( 14.0062 -1.41569     -0.5)
        ( 14.0128 -1.41722     -0.5)
        ( 14.0192 -1.41874     -0.5)
        ( 14.0258 -1.42027     -0.5)
        ( 14.0322 -1.42179     -0.5)
        ( 14.0388 -1.42332     -0.5)
        ( 14.0452 -1.42484     -0.5)
        ( 14.0518 -1.42636     -0.5)
        ( 14.0583 -1.42788     -0.5)
        ( 14.0648 -1.42939     -0.5)
        ( 14.0712 -1.43091     -0.5)
        ( 14.0777 -1.43242     -0.5)
        ( 14.0843 -1.43393     -0.5)
        ( 14.0907 -1.43544     -0.5)
        ( 14.0972 -1.43695     -0.5)
        ( 14.1037 -1.43846     -0.5)
        ( 14.1103 -1.43997     -0.5)
        ( 14.1167 -1.44147     -0.5)
        ( 14.1233 -1.44297     -0.5)
        ( 14.1297 -1.44447     -0.5)
        ( 14.1363 -1.44597     -0.5)
        ( 14.1427 -1.44747     -0.5)
        ( 14.1493 -1.44897     -0.5)
        ( 14.1557 -1.45046     -0.5)
        ( 14.1623 -1.45195     -0.5)
        ( 14.1687 -1.45344     -0.5)
        ( 14.1753 -1.45493     -0.5)
        ( 14.1818 -1.45642     -0.5)
        ( 14.1883 -1.45791     -0.5)
        ( 14.1947 -1.45939     -0.5)
        ( 14.2012 -1.46088     -0.5)
        ( 14.2078 -1.46236     -0.5)
        ( 14.2142 -1.46384     -0.5)
        ( 14.2207 -1.46532     -0.5)
        ( 14.2272  -1.4668     -0.5)
        ( 14.2338 -1.46828     -0.5)
        ( 14.2402 -1.46975     -0.5)
        ( 14.2468 -1.47122     -0.5)
        ( 14.2532  -1.4727     -0.5)
        ( 14.2598 -1.47417     -0.5)
        ( 14.2662 -1.47564     -0.5)
        ( 14.2728  -1.4771     -0.5)
        ( 14.2793 -1.47857     -0.5)
        ( 14.2858 -1.48003     -0.5)
        ( 14.2922  -1.4815     -0.5)
        ( 14.2988 -1.48296     -0.5)
        ( 14.3053 -1.48442     -0.5)
        ( 14.3117 -1.48588     -0.5)
        ( 14.3182 -1.48734     -0.5)
        ( 14.3247 -1.48879     -0.5)
        ( 14.3313 -1.49025     -0.5)
        ( 14.3377  -1.4917     -0.5)
        ( 14.3443 -1.49315     -0.5)
        ( 14.3507  -1.4946     -0.5)
        ( 14.3573 -1.49605     -0.5)
        ( 14.3637  -1.4975     -0.5)
        ( 14.3703 -1.49894     -0.5)
        ( 14.3767 -1.50039     -0.5)
        ( 14.3833 -1.50183     -0.5)
        ( 14.3897 -1.50327     -0.5)
        ( 14.3963 -1.50471     -0.5)
        ( 14.4028 -1.50615     -0.5)
        ( 14.4093 -1.50759     -0.5)
        ( 14.4157 -1.50903     -0.5)
        ( 14.4223 -1.51046     -0.5)
        ( 14.4288  -1.5119     -0.5)
        ( 14.4352 -1.51333     -0.5)
        ( 14.4417 -1.51476     -0.5)
        ( 14.4482 -1.51619     -0.5)
        ( 14.4548 -1.51762     -0.5)
        ( 14.4612 -1.51905     -0.5)
        ( 14.4678 -1.52047     -0.5)
        ( 14.4742  -1.5219     -0.5)
        ( 14.4808 -1.52332     -0.5)
        ( 14.4872 -1.52474     -0.5)
        ( 14.4938 -1.52616     -0.5)
        ( 14.5002 -1.52758     -0.5)
        ( 14.5068   -1.529     -0.5)
        ( 14.5132 -1.53041     -0.5)
        ( 14.5198 -1.53183     -0.5)
        ( 14.5263 -1.53324     -0.5)
        ( 14.5328 -1.53466     -0.5)
        ( 14.5392 -1.53607     -0.5)
        ( 14.5457 -1.53748     -0.5)
        ( 14.5523 -1.53888     -0.5)
        ( 14.5587 -1.54029     -0.5)
        ( 14.5652  -1.5417     -0.5)
        ( 14.5717  -1.5431     -0.5)
        ( 14.5783 -1.54451     -0.5)
        ( 14.5847 -1.54591     -0.5)
        ( 14.5913 -1.54731     -0.5)
        ( 14.5977 -1.54871     -0.5)
        ( 14.6043 -1.55011     -0.5)
        ( 14.6107  -1.5515     -0.5)
        ( 14.6173  -1.5529     -0.5)
        ( 14.6237  -1.5543     -0.5)
        ( 14.6303 -1.55569     -0.5)
        ( 14.6367 -1.55708     -0.5)
        ( 14.6433 -1.55847     -0.5)
        ( 14.6498 -1.55986     -0.5)
        ( 14.6562 -1.56125     -0.5)
        ( 14.6627 -1.56264     -0.5)
        ( 14.6692 -1.56402     -0.5)
        ( 14.6758 -1.56541     -0.5)
        ( 14.6822 -1.56679     -0.5)
        ( 14.6888 -1.56817     -0.5)
        ( 14.6952 -1.56955     -0.5)
        ( 14.7018 -1.57093     -0.5)
        ( 14.7082 -1.57231     -0.5)
        ( 14.7148 -1.57369     -0.5)
        ( 14.7212 -1.57507     -0.5)
        ( 14.7278 -1.57644     -0.5)
        ( 14.7342 -1.57781     -0.5)
        ( 14.7408 -1.57919     -0.5)
        ( 14.7473 -1.58056     -0.5)
        ( 14.7538 -1.58193     -0.5)
        ( 14.7602  -1.5833     -0.5)
        ( 14.7668 -1.58467     -0.5)
        ( 14.7733 -1.58603     -0.5)
        ( 14.7797  -1.5874     -0.5)
        ( 14.7862 -1.58876     -0.5)
        ( 14.7927 -1.59013     -0.5)
        ( 14.7993 -1.59149     -0.5)
        ( 14.8057 -1.59285     -0.5)
        ( 14.8123 -1.59421     -0.5)
        ( 14.8187 -1.59557     -0.5)
        ( 14.8253 -1.59692     -0.5)
        ( 14.8317 -1.59828     -0.5)
        ( 14.8383 -1.59964     -0.5)
        ( 14.8447 -1.60099     -0.5)
        ( 14.8513 -1.60234     -0.5)
        ( 14.8577 -1.60369     -0.5)
        ( 14.8643 -1.60504     -0.5)
        ( 14.8708 -1.60639     -0.5)
        ( 14.8773 -1.60774     -0.5)
        ( 14.8837 -1.60909     -0.5)
        ( 14.8902 -1.61043     -0.5)
        ( 14.8968 -1.61178     -0.5)
        ( 14.9032 -1.61312     -0.5)
        ( 14.9097 -1.61447     -0.5)
        ( 14.9162 -1.61581     -0.5)
        ( 14.9228 -1.61715     -0.5)
        ( 14.9292 -1.61849     -0.5)
        ( 14.9358 -1.61983     -0.5)
        ( 14.9422 -1.62116     -0.5)
        ( 14.9488  -1.6225     -0.5)
        ( 14.9552 -1.62383     -0.5)
        ( 14.9618 -1.62517     -0.5)
        ( 14.9682  -1.6265     -0.5)
        ( 14.9748 -1.62783     -0.5)
        ( 14.9812 -1.62916     -0.5)
        ( 14.9878 -1.63049     -0.5)
        ( 14.9943 -1.63182     -0.5)
        ( 15.0008 -1.63315     -0.5)
        ( 15.0072 -1.63447     -0.5)
        ( 15.0137  -1.6358     -0.5)
        ( 15.0203 -1.63712     -0.5)
        ( 15.0267 -1.63844     -0.5)
        ( 15.0332 -1.63977     -0.5)
        ( 15.0397 -1.64109     -0.5)
        ( 15.0463 -1.64241     -0.5)
        ( 15.0527 -1.64373     -0.5)
        ( 15.0592 -1.64504     -0.5)
        ( 15.0658 -1.64636     -0.5)
        ( 15.0723 -1.64768     -0.5)
        ( 15.0787 -1.64899     -0.5)
        ( 15.0853  -1.6503     -0.5)
        ( 15.0918 -1.65162     -0.5)
        ( 15.0983 -1.65293     -0.5)
        ( 15.1047 -1.65424     -0.5)
        ( 15.1113 -1.65555     -0.5)
        ( 15.1178 -1.65685     -0.5)
        ( 15.1242 -1.65816     -0.5)
        ( 15.1307 -1.65947     -0.5)
        ( 15.1372 -1.66077     -0.5)
        ( 15.1438 -1.66208     -0.5)
        ( 15.1502 -1.66338     -0.5)
        ( 15.1567 -1.66468     -0.5)
        ( 15.1632 -1.66598     -0.5)
        ( 15.1698 -1.66728     -0.5)
        ( 15.1762 -1.66858     -0.5)
        ( 15.1828 -1.66988     -0.5)
        ( 15.1893 -1.67118     -0.5)
        ( 15.1958 -1.67247     -0.5)
        ( 15.2022 -1.67377     -0.5)
        ( 15.2088 -1.67506     -0.5)
        ( 15.2153 -1.67636     -0.5)
        ( 15.2218 -1.67765     -0.5)
        ( 15.2282 -1.67894     -0.5)
        ( 15.2348 -1.68023     -0.5)
        ( 15.2413 -1.68152     -0.5)
        ( 15.2477 -1.68281     -0.5)
        ( 15.2542 -1.68409     -0.5)
        ( 15.2607 -1.68538     -0.5)
        ( 15.2673 -1.68666     -0.5)
        ( 15.2737 -1.68795     -0.5)
        ( 15.2802 -1.68923     -0.5)
        ( 15.2867 -1.69051     -0.5)
        ( 15.2933 -1.69179     -0.5)
        ( 15.2997 -1.69307     -0.5)
        ( 15.3063 -1.69435     -0.5)
        ( 15.3128 -1.69563     -0.5)
        ( 15.3193 -1.69691     -0.5)
        ( 15.3257 -1.69819     -0.5)
        ( 15.3323 -1.69946     -0.5)
        ( 15.3388 -1.70074     -0.5)
        ( 15.3453 -1.70201     -0.5)
        ( 15.3517 -1.70328     -0.5)
        ( 15.3582 -1.70455     -0.5)
        ( 15.3648 -1.70582     -0.5)
        ( 15.3712 -1.70709     -0.5)
        ( 15.3777 -1.70836     -0.5)
        ( 15.3842 -1.70963     -0.5)
        ( 15.3908  -1.7109     -0.5)
        ( 15.3972 -1.71216     -0.5)
        ( 15.4037 -1.71343     -0.5)
        ( 15.4102 -1.71469     -0.5)
        ( 15.4168 -1.71595     -0.5)
        ( 15.4232 -1.71722     -0.5)
        ( 15.4298 -1.71848     -0.5)
        ( 15.4363 -1.71974     -0.5)
        ( 15.4428   -1.721     -0.5)
        ( 15.4492 -1.72226     -0.5)
        ( 15.4558 -1.72351     -0.5)
        ( 15.4623 -1.72477     -0.5)
        ( 15.4688 -1.72603     -0.5)
        ( 15.4752 -1.72728     -0.5)
        ( 15.4817 -1.72854     -0.5)
        ( 15.4883 -1.72979     -0.5)
        ( 15.4947 -1.73104     -0.5)
        ( 15.5012 -1.73229     -0.5)
        ( 15.5077 -1.73354     -0.5)
        ( 15.5143 -1.73479     -0.5)
        ( 15.5207 -1.73604     -0.5)
        ( 15.5273 -1.73729     -0.5)
        ( 15.5338 -1.73853     -0.5)
        ( 15.5403 -1.73978     -0.5)
        ( 15.5467 -1.74102     -0.5)
        ( 15.5533 -1.74227     -0.5)
        ( 15.5598 -1.74351     -0.5)
        ( 15.5663 -1.74475     -0.5)
        ( 15.5727   -1.746     -0.5)
        ( 15.5793 -1.74724     -0.5)
        ( 15.5858 -1.74848     -0.5)
        ( 15.5922 -1.74971     -0.5)
        ( 15.5987 -1.75095     -0.5)
        ( 15.6052 -1.75219     -0.5)
        ( 15.6118 -1.75343     -0.5)
        ( 15.6182 -1.75466     -0.5)
        ( 15.6247 -1.75589     -0.5)
        ( 15.6312 -1.75713     -0.5)
        ( 15.6378 -1.75836     -0.5)
        ( 15.6442 -1.75959     -0.5)
        ( 15.6508 -1.76082     -0.5)
        ( 15.6573 -1.76205     -0.5)
        ( 15.6638 -1.76328     -0.5)
        ( 15.6702 -1.76451     -0.5)
        ( 15.6768 -1.76574     -0.5)
        ( 15.6833 -1.76697     -0.5)
        ( 15.6898 -1.76819     -0.5)
        ( 15.6962 -1.76942     -0.5)
        ( 15.7027 -1.77064     -0.5)
        ( 15.7093 -1.77186     -0.5)
        ( 15.7157 -1.77309     -0.5)
        ( 15.7222 -1.77431     -0.5)
        ( 15.7287 -1.77553     -0.5)
        ( 15.7353 -1.77675     -0.5)
        ( 15.7417 -1.77797     -0.5)
        ( 15.7482 -1.77919     -0.5)
        ( 15.7547  -1.7804     -0.5)
        ( 15.7613 -1.78162     -0.5)
        ( 15.7677 -1.78283     -0.5)
        ( 15.7743 -1.78405     -0.5)
        ( 15.7808 -1.78526     -0.5)
        ( 15.7873 -1.78648     -0.5)
        ( 15.7937 -1.78769     -0.5)
        ( 15.8003  -1.7889     -0.5)
        ( 15.8068 -1.79011     -0.5)
        ( 15.8133 -1.79132     -0.5)
        ( 15.8197 -1.79253     -0.5)
        ( 15.8262 -1.79374     -0.5)
        ( 15.8328 -1.79495     -0.5)
        ( 15.8392 -1.79615     -0.5)
        ( 15.8457 -1.79736     -0.5)
        ( 15.8522 -1.79856     -0.5)
        ( 15.8588 -1.79977     -0.5)
        ( 15.8652 -1.80097     -0.5)
        ( 15.8717 -1.80217     -0.5)
        ( 15.8783 -1.80338     -0.5)
        ( 15.8848 -1.80458     -0.5)
        ( 15.8912 -1.80578     -0.5)
        ( 15.8978 -1.80698     -0.5)
        ( 15.9043 -1.80818     -0.5)
        ( 15.9108 -1.80937     -0.5)
        ( 15.9172 -1.81057     -0.5)
        ( 15.9238 -1.81177     -0.5)
        ( 15.9303 -1.81296     -0.5)
        ( 15.9367 -1.81416     -0.5)
        ( 15.9432 -1.81535     -0.5)
        ( 15.9497 -1.81654     -0.5)
        ( 15.9563 -1.81774     -0.5)
        ( 15.9627 -1.81893     -0.5)
        ( 15.9692 -1.82012     -0.5)
        ( 15.9757 -1.82131     -0.5)
        ( 15.9823  -1.8225     -0.5)
        ( 15.9887 -1.82369     -0.5)
        ( 15.9953 -1.82487     -0.5)
        ( 16.0018 -1.82606     -0.5)
        ( 16.0083 -1.82725     -0.5)
        ( 16.0147 -1.82843     -0.5)
        ( 16.0213 -1.82962     -0.5)
        ( 16.0278  -1.8308     -0.5)
        ( 16.0343 -1.83198     -0.5)
        ( 16.0407 -1.83317     -0.5)
        ( 16.0472 -1.83435     -0.5)
        ( 16.0538 -1.83553     -0.5)