/*--------------------------------*- C++ -*----------------------------------*\
| =========                 |                                                 |
| \\      /  F ield         | OpenFOAM: The Open Source CFD Toolbox           |
|  \\    /   O peration     | Version:  4.x                                   |
|   \\  /    A nd           | Web:      www.OpenFOAM.org                      |
|    \\/     M anipulation  |                                                 |
\*---------------------------------------------------------------------------*/
FoamFile
{
    version     2.0;
    format      ascii;
    class       dictionary;
    object      extrude2DMeshDict;
}
// * * * * * * * * * * * * * * * * * * * * * * * * * * * * * * * * * * * * * //

constructFrom patch;
sourceCase;
sourcePatches (top);
exposedPatchName bottom;

flipNormals false;
extrudeModel        linearNormal;

nLayers             1;
expansionRatio      1.0;

linearNormalCoeffs
{
    thickness       0.5;
}

mergeFaces false;

// ************************************************************************* //
