/*------------------------------*- C++ -*--------------------------------*\ 
| =========                 |                                             | 
| \\      /  F ield         | OpenFOAM: The Open Source CFD Toolbox       | 
|  \\    /   O peration     | Version:  2.4.0                             | 
|   \\  /    A nd           | Web:      www.openfoam.com                  | 
|    \\/     M anipulation  |                                             | 
\*-----------------------------------------------------------------------*/ 
FoamFile 
{ 
    version     2.0; 
    format      ascii; 
    class       dictionary; 
    object      blockMeshDict; 
} 
// * * * * * * * * * * * * * * * * * * * * * * * * * * * * * * * * * * * // 

convertToMeters 1.0; 
N   50;
G  0.5;
L   38;
W   33;
rad 10;
sa  0.382683432;
ca  0.923879533;
s2  1.414213562;
X1  0.0;
X2  #calc "$L/2.0-$rad";
X3  #calc "$L/2.0-$rad/$s2";
X4  #calc "$L/2.0";
X5  #calc "$L/2.0+$rad/$s2";
X6  #calc "$L/2.0+$rad";
X7  #calc "$L";
Y1  0.0;
Y2  #calc "$W/2.0-$rad";
Y3  #calc "$W/2.0-$rad/$s2";
Y4  #calc "$W/2.0";
Y5  #calc "$W/2.0+$rad/$s2";
Y6  #calc "$W/2.0+$rad";
Y7  #calc "$W";
Z1 -0.25;
Z2  0.25;
x1  #calc "$L/2.0-$rad*$ca";
x2  #calc "$L/2.0-$rad*$sa";
x3  #calc "$L/2.0+$rad*$sa";
x4  #calc "$L/2.0+$rad*$ca";
y1  #calc "$W/2.0-$rad*$ca";
y2  #calc "$W/2.0-$rad*$sa";
y3  #calc "$W/2.0+$rad*$sa";
y4  #calc "$W/2.0+$rad*$ca";

vertices
(
    ($X1 $Y4 $Z1)
    ($X2 $Y4 $Z1)
    ($X1 $Y4 $Z2)
    ($X2 $Y4 $Z2)

    ($X1 $Y1 $Z1)
    ($X3 $Y3 $Z1)
    ($X1 $Y1 $Z2)
    ($X3 $Y3 $Z2)

    ($X4 $Y1 $Z1)
    ($X4 $Y2 $Z1)
    ($X4 $Y1 $Z2)
    ($X4 $Y2 $Z2)

    ($X7 $Y1 $Z1)
    ($X5 $Y3 $Z1)
    ($X7 $Y1 $Z2)
    ($X5 $Y3 $Z2)

    ($X7 $Y4 $Z1)
    ($X6 $Y4 $Z1)
    ($X7 $Y4 $Z2)
    ($X6 $Y4 $Z2)

    ($X7 $Y7 $Z1)
    ($X5 $Y5 $Z1)
    ($X7 $Y7 $Z2)
    ($X5 $Y5 $Z2)

    ($X4 $Y7 $Z1)
    ($X4 $Y6 $Z1)
    ($X4 $Y7 $Z2)
    ($X4 $Y6 $Z2)

    ($X1 $Y7 $Z1)
    ($X3 $Y5 $Z1)
    ($X1 $Y7 $Z2)
    ($X3 $Y5 $Z2)

);

blocks
(
    hex ( 0  4  5  1  2  6  7  3) ($N $N 1) simpleGrading (1 $G 1)
    hex ( 4  8  9  5  6 10 11  7) ($N $N 1) simpleGrading (1 $G 1)
    hex ( 8 12 13  9 10 14 15 11) ($N $N 1) simpleGrading (1 $G 1)
    hex (12 16 17 13 14 18 19 15) ($N $N 1) simpleGrading (1 $G 1)
    hex (16 20 21 17 18 22 23 19) ($N $N 1) simpleGrading (1 $G 1)
    hex (20 24 25 21 22 26 27 23) ($N $N 1) simpleGrading (1 $G 1)
    hex (24 28 29 25 26 30 31 27) ($N $N 1) simpleGrading (1 $G 1)
    hex (28  0  1 29 30  2  3 31) ($N $N 1) simpleGrading (1 $G 1)
);

edges
(
    arc      5  1 ($x1 $y2 $Z1)
    arc      7  3 ($x1 $y2 $Z2)
    arc      9  5 ($x2 $y1 $Z1)
    arc     11  7 ($x2 $y1 $Z2)
    arc     13  9 ($x3 $y1 $Z1)
    arc     15 11 ($x3 $y1 $Z2)
    arc     17 13 ($x4 $y2 $Z1)
    arc     19 15 ($x4 $y2 $Z2)
    arc     21 17 ($x4 $y3 $Z1)
    arc     23 19 ($x4 $y3 $Z2)
    arc     25 21 ($x3 $y4 $Z1)
    arc     27 23 ($x3 $y4 $Z2)
    arc     29 25 ($x2 $y4 $Z1)
    arc     31 27 ($x2 $y4 $Z2)
    arc      1 29 ($x1 $y3 $Z1)
    arc      3 31 ($x1 $y3 $Z2)
);


boundary
(
    inlet
    {
      type patch;
      faces
      (
        ( 0  4  6  2)
        ( 0  2 30 28)
      );
    }

    outlet
    {
      type patch;
      faces
      (
        (12 16 18 14)
        (16 20 22 18)
      );
    }

    insolubleWall
    {
      type patch;
      faces
      (
        ( 4  8 10  6)
        ( 8 12 14 10)
        (28 30 26 24)
        (24 26 22 20)
      );
    }

    top
    {
      type empty;
      faces
      (
        ( 2  6  7  3)
        ( 6 10 11  7)
        (10 14 15 11)
        (14 18 19 15)
        (18 22 23 19)
        (22 26 27 23)
        (26 30 31 27)
        (30  2  3 31)
      );
    }
    bottom
    {
      type empty;
      faces
      (
        ( 0  1  5  4)
        ( 4  5  9  8)
        ( 8  9 13 12)
        (12 13 17 16)
        (16 17 21 20)
        (20 21 25 24)
        (24 25 29 28)
        (28 29  1  0)
      );
    }

    solubleWall
    {
      type patch;
      faces
      (
        ( 1  3  7  5)
        ( 5  7 11  9)
        ( 9 11 15 13)
        (13 15 19 17)
        (17 19 23 21)
        (21 23 27 25)
        (25 27 31 29)
        (29 31  3  1)
      );
    }
);

// ********************************************************************* //
