/*--------------------------------*- C++ -*----------------------------------*\
| =========                 |                                                 |
| \\      /  F ield         | OpenFOAM: The Open Source CFD Toolbox           |
|  \\    /   O peration     | Version:  2.2.0                                 |
|   \\  /    A nd           | Web:      www.OpenFOAM.org                      |
|    \\/     M anipulation  |                                                 |
\*---------------------------------------------------------------------------*/
FoamFile
{
    version     2.0;
    format      ascii;
    class       dictionary;
    location    "constant";
    object      transportProperties;
}
// * * * * * * * * * * * * * * * * * * * * * * * * * * * * * * * * * * * * * //

nu             nu [ 0 2 -1 0 0 0 0 ] 2.5e+1;     // b^2/s (b is length unit)
D               D [ 0 2 -1 0 0 0 0 ] 2.5e-2;     // b^2/s
l_T                                  0.5;        // Reactive length D/kb



// ************************************************************************* //
