/*------------------------------*- C++ -*--------------------------------*\ 
| =========                 |                                             | 
| \\      /  F ield         | OpenFOAM: The Open Source CFD Toolbox       | 
|  \\    /   O peration     | Version:  2.4.0                             | 
|   \\  /    A nd           | Web:      www.openfoam.com                  | 
|    \\/     M anipulation  |                                             | 
\*-----------------------------------------------------------------------*/ 
FoamFile 
{ 
    version     2.0; 
    format      ascii; 
    class       dictionary; 
    object      blockMeshDict; 
} 
// * * * * * * * * * * * * * * * * * * * * * * * * * * * * * * * * * * * // 

convertToMeters 1.0; 

vertices
(
    (-40    0   1)         //  0
    (-40    0  21)
    (-40  330   1)
    (-40  330  21)
    (  0    0   0)         //  4
    (  0    0   1)
    (  0  330   0)
    (  0  330   1)
    ( 10    0   1)         //  8
    ( 10    0  21)
    ( 10  330   1)
    ( 10  330  21)
    (370    0   1)         // 12
    (370    0  21)
    (370  330   1)
    (370  330  21)
    (380    0   0)         // 16
    (380    0   1)
    (380  330   0)
    (380  330   1)
    (420    0   1)         // 20
    (420    0  21)
    (420  330   1)
    (420  330  21)
);

blocks
(
    hex ( 0  8 10  2  1  9 11  3) ( 25 165 20) simpleGrading (1 1 10)
    hex ( 4 16 18  6  5 17 19  7) (190 165  4) simpleGrading (1 1  1)
    hex (12 20 22 14 13 21 23 15) ( 25 165 20) simpleGrading (1 1 10)
);

boundary
(
    solubleWall
    {
        type patch;
        faces
        (
            ( 4  6 18 16)
        );
    }

    inlet
    {
        type patch;
        faces
        (
            ( 0  1  3  2)
        );
    }

    outlet
    {
        type patch;
        faces
        (
            (20 22 23 21)
        );
    }

    insolubleX
    {
        type patch;
        faces
        (
            ( 4  5  7  6)
            ( 8 10 11  9)
            (12 13 15 14)
            (16 18 19 17)
        );
    }

    insolubleY
    {
        type patch;
        faces
        (
            ( 0  8  9  1)
            ( 2  3 11 10)
            ( 4 16 17  5)
            ( 6  7 19 18)
            (12 20 21 13)
            (14 15 23 22)
        );
    }

    insolubleZ
    {
        type patch;
        faces
        (
            ( 1  9 11  3)
            (13 21 23 15)
        );
    }

    insolubleZmaster
    {
        type patch;
        faces
        (
            ( 5  7 19 17)
        );
    }

    insolubleZslave
    {
        type patch;
        faces
        (
            ( 0  2 10  8)
            (12 14 22 20)
        );
    }
);

mergePatchPairs
(
    (insolubleZmaster insolubleZslave)
);

// ********************************************************************* //
