/*--------------------------------*- C++ -*----------------------------------*\
| =========                 |                                                 |
| \\      /  F ield         | OpenFOAM: The Open Source CFD Toolbox           |
|  \\    /   O peration     | Version:  2.2.0                                 |
|   \\  /    A nd           | Web:      www.OpenFOAM.org                      |
|    \\/     M anipulation  |                                                 |
\*---------------------------------------------------------------------------*/
FoamFile
{
    version     2.0;
    format      ascii;
    class       dictionary;
    location    "system";
    object      fvSolution;
}
// * * * * * * * * * * * * * * * * * * * * * * * * * * * * * * * * * * * * * //

solvers
{
    p
    {
        solver                  GAMG;
        smoother                GaussSeidel;
        cacheAgglomeration      true;
        nCellsInCoarsestLevel   10;
        agglomerator            faceAreaPair;
        mergeLevels             1;
        tolerance               1e-9;
        relTol                  4e-1;
    }

    U
    {

        solver                  smoothSolver;
        smoother                GaussSeidel;
        tolerance               1e-9;
        relTol                  4e-1;
        nSweeps                 10;
    }

    C
    {
        solver                  smoothSolver;
        smoother                GaussSeidel;
        tolerance               1e-9;
        relTol                  4e-1;
        nSweeps                 10;
    }

    cellMotionU
    {
        solver                  PCG;
        preconditioner          DIC;
        tolerance               1e-08;
        relTol                  1e-08;
    }
}

SIMPLE
{
    nNonOrthogonalCorrectors 	1;
		consistent      		yes;
		pRefCell				0;
		pRefValue				0;

    residualControl
    {
        p                       1e-6;
        U                       1e-6;
    }
}

relaxationFactors
{
    equations
    {
        U                       0.7;
        C                       1.0;
    }
}

convDiff
{
    tolerance                   1e-6;
    maxIter                     100;
}

// ************************************************************************* //
