/*--------------------------------*- C++ -*----------------------------------*\
| =========                 |                                                 |
| \\      /  F ield         | OpenFOAM: The Open Source CFD Toolbox           |
|  \\    /   O peration     | Version:  4.0                                   |
|   \\  /    A nd           | Web:      www.OpenFOAM.org                      |
|    \\/     M anipulation  |                                                 |
\*---------------------------------------------------------------------------*/
FoamFile
{
    version     2.0;
    format      ascii;
    class       dictionary;
    object      topoSetDict;
}
// * * * * * * * * * * * * * * * * * * * * * * * * * * * * * * * * * * * * * //

actions
(
    // Create cellZone for mesh relaxation in fracture region
    {
        name    fractureCellSet;
        type    cellSet;
        action  new;
        source  boxToCell;
        sourceInfo
        {
            box     (0 0 0) (380 330 1);

        }
    }
    {
        name    fractureCells;
        type    cellZoneSet;
        action  new;
        source  setToCellZone;
        sourceInfo
        {
            set fractureCellSet;
        }
    }
);

// ************************************************************************* //
