/*--------------------------------*- C++ -*----------------------------------*\
| =========                 |                                                 |
| \\      /  F ield         | OpenFOAM: The Open Source CFD Toolbox           |
|  \\    /   O peration     | Version:  2.2.0                                 |
|   \\  /    A nd           | Web:      www.OpenFOAM.org                      |
|    \\/     M anipulation  |                                                 |
\*---------------------------------------------------------------------------*/
FoamFile
{
    version     2.0;
    format      ascii;
    class       dictionary;
    location    "system";
    object      dynamicMeshDict;
}

// * * * * * * * * * * * * * * * * * * * * * * * * * * * * * * * * * * * * * //

dynamicFvMesh      dynamicMultiMotionSolverFvMesh;

dynamicMultiMotionSolverFvMeshCoeffs
{
    fracture
    {
        cellZone            fractureCells;

        motionSolverLibs ("libvelocityDeltatLaplacianFvMotionSolver.so");
        solver             velocityDeltatLaplacian;
        velocityDeltatLaplacianCoeffs
        {
            diffusivity    uniform;
            tolerance      1e-4;
        }
    }
}

